Version 4
SHEET 1 1616 680
WIRE -240 -32 -368 -32
WIRE -112 -32 -160 -32
WIRE -368 48 -368 -32
WIRE -368 48 -432 48
WIRE -256 48 -368 48
WIRE -112 48 -112 -32
WIRE -112 48 -192 48
WIRE -32 48 -112 48
WIRE 64 48 -32 48
WIRE 176 48 128 48
WIRE 448 48 176 48
WIRE 608 48 448 48
WIRE 896 48 608 48
WIRE 608 80 608 48
WIRE 176 96 176 48
WIRE -32 112 -32 48
WIRE 448 112 448 48
WIRE -432 128 -432 48
WIRE 832 160 608 160
WIRE 608 176 608 160
WIRE -432 240 -432 208
WIRE -320 240 -432 240
WIRE -32 240 -32 176
WIRE -32 240 -320 240
WIRE 48 240 -32 240
WIRE 48 272 48 240
WIRE 176 272 176 160
WIRE 176 272 48 272
WIRE 448 272 448 176
WIRE 448 272 176 272
WIRE 608 272 608 256
WIRE 608 272 448 272
WIRE 896 272 608 272
WIRE -320 304 -320 240
FLAG -320 304 0
SYMBOL voltage -432 112 R0
WINDOW 123 0 0 Left 0
WINDOW 39 0 0 Left 0
WINDOW 3 -262 120 Left 2
SYMATTR Value SINE(0 265 50 0 0 0)
SYMATTR InstName V1
SYMBOL zener 464 176 R180
WINDOW 0 24 64 Left 2
WINDOW 3 24 0 Left 2
SYMATTR InstName D1
SYMATTR Value TFZV12B
SYMBOL res -144 -48 R90
WINDOW 0 0 56 VBottom 2
WINDOW 3 32 56 VTop 2
SYMATTR InstName R3
SYMATTR Value 680k
SYMBOL polcap 160 96 R0
SYMATTR InstName C1
SYMATTR Value 6800µ
SYMBOL diode -16 176 R180
WINDOW 0 24 64 Left 2
WINDOW 3 24 0 Left 2
SYMATTR InstName D2
SYMATTR Value 1N4148
SYMBOL diode 64 64 R270
WINDOW 0 32 32 VTop 2
WINDOW 3 0 32 VBottom 2
SYMATTR InstName D3
SYMATTR Value 1N4148
SYMBOL cap -192 32 R90
WINDOW 0 0 32 VBottom 2
WINDOW 3 32 32 VTop 2
SYMATTR InstName C2
SYMATTR Value 1.5µ
SYMBOL res 592 64 R0
SYMATTR InstName R1
SYMATTR Value 80
SYMBOL res 592 160 R0
SYMATTR InstName R2
SYMATTR Value 120
TEXT 48 344 Left 2 !.tran 0 20 2 0.0001
